Circuit: * C:\Users\mateusz.urban\Downloads\Projekty-2016-02-23\Projekty\Rc_with_transistor2\rctran.asc

Direct Newton iteration for .op point succeeded.

Date: Wed Feb 24 10:15:32 2016
Total elapsed time: 0.057 seconds.

tnom = 27
temp = 27
method = modified trap
totiter = 7301
traniter = 7260
tranpoints = 3631
accept = 3631
rejected = 0
matrix size = 11
fillins = 4
solver = Normal
Matrix Compiler1: 1.00 KB object code size  0.3/0.1/[0.1]
Matrix Compiler2:      79 opcodes  0.4/[0.1]/0.1


